<?xml version="1.0" encoding="UTF-8"?>

<!-- generated on 2025-12-10T14:52:58.044251+08:00 by Eclipse SUMO netgenerate 1.25.0
<netgenerateConfiguration xmlns:xsi="http://www.w3.org/2001/XMLSchema-instance" xsi:noNamespaceSchemaLocation="http://sumo.dlr.de/xsd/netgenerateConfiguration.xsd">

    <grid_network>
        <grid value="true"/>
        <grid.length value="200"/>
        <grid.x-number value="2"/>
        <grid.y-number value="1"/>
        <grid.attach-length value="200"/>
    </grid_network>

    <output>
        <output-file value="double_grid.net.xml"/>
    </output>

    <building_defaults>
        <default.lanenumber value="3"/>
    </building_defaults>

    <tls_building>
        <tls.guess value="true"/>
    </tls_building>

    <junctions>
        <no-turnarounds value="true"/>
    </junctions>

</netgenerateConfiguration>
-->

<net version="1.20" junctionCornerDetail="5" limitTurnSpeed="5.50" xmlns:xsi="http://www.w3.org/2001/XMLSchema-instance" xsi:noNamespaceSchemaLocation="http://sumo.dlr.de/xsd/net_file.xsd">

    <location netOffset="0.00,0.00" convBoundary="0.00,0.00,600.00,400.00" origBoundary="0.00,0.00,600.00,400.00" projParameter="!"/>

    <edge id=":A0_0" function="internal">
        <lane id=":A0_0_0" index="0" speed="6.51" length="9.03" shape="192.00,213.60 191.65,211.15 190.60,209.40 188.85,208.35 186.40,208.00"/>
    </edge>
    <edge id=":A0_1" function="internal">
        <lane id=":A0_1_0" index="0" speed="13.89" length="27.20" shape="192.00,213.60 192.00,186.40"/>
        <lane id=":A0_1_1" index="1" speed="13.89" length="27.20" shape="195.20,213.60 195.20,186.40"/>
        <lane id=":A0_1_2" index="2" speed="13.89" length="27.20" shape="198.40,213.60 198.40,186.40"/>
    </edge>
    <edge id=":A0_4" function="internal">
        <lane id=":A0_4_0" index="0" speed="10.36" length="5.01" shape="198.40,213.60 199.11,208.64"/>
    </edge>
    <edge id=":A0_20" function="internal">
        <lane id=":A0_20_0" index="0" speed="10.36" length="19.50" shape="199.11,208.64 199.35,206.95 202.20,202.20 206.95,199.35 213.60,198.40"/>
    </edge>
    <edge id=":A0_5" function="internal">
        <lane id=":A0_5_0" index="0" speed="6.51" length="9.03" shape="213.60,208.00 211.15,208.35 209.40,209.40 208.35,211.15 208.00,213.60"/>
    </edge>
    <edge id=":A0_6" function="internal">
        <lane id=":A0_6_0" index="0" speed="13.89" length="27.20" shape="213.60,208.00 186.40,208.00"/>
        <lane id=":A0_6_1" index="1" speed="13.89" length="27.20" shape="213.60,204.80 186.40,204.80"/>
        <lane id=":A0_6_2" index="2" speed="13.89" length="27.20" shape="213.60,201.60 186.40,201.60"/>
    </edge>
    <edge id=":A0_9" function="internal">
        <lane id=":A0_9_0" index="0" speed="10.36" length="5.01" shape="213.60,201.60 208.64,200.89"/>
    </edge>
    <edge id=":A0_21" function="internal">
        <lane id=":A0_21_0" index="0" speed="10.36" length="19.50" shape="208.64,200.89 206.95,200.65 202.20,197.80 199.35,193.05 198.40,186.40"/>
    </edge>
    <edge id=":A0_10" function="internal">
        <lane id=":A0_10_0" index="0" speed="6.51" length="9.03" shape="208.00,186.40 208.35,188.85 209.40,190.60 211.15,191.65 213.60,192.00"/>
    </edge>
    <edge id=":A0_11" function="internal">
        <lane id=":A0_11_0" index="0" speed="13.89" length="27.20" shape="208.00,186.40 208.00,213.60"/>
        <lane id=":A0_11_1" index="1" speed="13.89" length="27.20" shape="204.80,186.40 204.80,213.60"/>
        <lane id=":A0_11_2" index="2" speed="13.89" length="27.20" shape="201.60,186.40 201.60,213.60"/>
    </edge>
    <edge id=":A0_14" function="internal">
        <lane id=":A0_14_0" index="0" speed="10.36" length="5.01" shape="201.60,186.40 200.89,191.36"/>
    </edge>
    <edge id=":A0_22" function="internal">
        <lane id=":A0_22_0" index="0" speed="10.36" length="19.50" shape="200.89,191.36 200.65,193.05 197.80,197.80 193.05,200.65 186.40,201.60"/>
    </edge>
    <edge id=":A0_15" function="internal">
        <lane id=":A0_15_0" index="0" speed="6.51" length="9.03" shape="186.40,192.00 188.85,191.65 190.60,190.60 191.65,188.85 192.00,186.40"/>
    </edge>
    <edge id=":A0_16" function="internal">
        <lane id=":A0_16_0" index="0" speed="13.89" length="27.20" shape="186.40,192.00 213.60,192.00"/>
        <lane id=":A0_16_1" index="1" speed="13.89" length="27.20" shape="186.40,195.20 213.60,195.20"/>
        <lane id=":A0_16_2" index="2" speed="13.89" length="27.20" shape="186.40,198.40 213.60,198.40"/>
    </edge>
    <edge id=":A0_19" function="internal">
        <lane id=":A0_19_0" index="0" speed="10.36" length="5.01" shape="186.40,198.40 191.36,199.11"/>
    </edge>
    <edge id=":A0_23" function="internal">
        <lane id=":A0_23_0" index="0" speed="10.36" length="19.50" shape="191.36,199.11 193.05,199.35 197.80,202.20 200.65,206.95 201.60,213.60"/>
    </edge>
    <edge id=":B0_0" function="internal">
        <lane id=":B0_0_0" index="0" speed="6.51" length="9.03" shape="392.00,213.60 391.65,211.15 390.60,209.40 388.85,208.35 386.40,208.00"/>
    </edge>
    <edge id=":B0_1" function="internal">
        <lane id=":B0_1_0" index="0" speed="13.89" length="27.20" shape="392.00,213.60 392.00,186.40"/>
        <lane id=":B0_1_1" index="1" speed="13.89" length="27.20" shape="395.20,213.60 395.20,186.40"/>
        <lane id=":B0_1_2" index="2" speed="13.89" length="27.20" shape="398.40,213.60 398.40,186.40"/>
    </edge>
    <edge id=":B0_4" function="internal">
        <lane id=":B0_4_0" index="0" speed="10.36" length="5.01" shape="398.40,213.60 399.11,208.64"/>
    </edge>
    <edge id=":B0_20" function="internal">
        <lane id=":B0_20_0" index="0" speed="10.36" length="19.50" shape="399.11,208.64 399.35,206.95 402.20,202.20 406.95,199.35 413.60,198.40"/>
    </edge>
    <edge id=":B0_5" function="internal">
        <lane id=":B0_5_0" index="0" speed="6.51" length="9.03" shape="413.60,208.00 411.15,208.35 409.40,209.40 408.35,211.15 408.00,213.60"/>
    </edge>
    <edge id=":B0_6" function="internal">
        <lane id=":B0_6_0" index="0" speed="13.89" length="27.20" shape="413.60,208.00 386.40,208.00"/>
        <lane id=":B0_6_1" index="1" speed="13.89" length="27.20" shape="413.60,204.80 386.40,204.80"/>
        <lane id=":B0_6_2" index="2" speed="13.89" length="27.20" shape="413.60,201.60 386.40,201.60"/>
    </edge>
    <edge id=":B0_9" function="internal">
        <lane id=":B0_9_0" index="0" speed="10.36" length="5.01" shape="413.60,201.60 408.64,200.89"/>
    </edge>
    <edge id=":B0_21" function="internal">
        <lane id=":B0_21_0" index="0" speed="10.36" length="19.50" shape="408.64,200.89 406.95,200.65 402.20,197.80 399.35,193.05 398.40,186.40"/>
    </edge>
    <edge id=":B0_10" function="internal">
        <lane id=":B0_10_0" index="0" speed="6.51" length="9.03" shape="408.00,186.40 408.35,188.85 409.40,190.60 411.15,191.65 413.60,192.00"/>
    </edge>
    <edge id=":B0_11" function="internal">
        <lane id=":B0_11_0" index="0" speed="13.89" length="27.20" shape="408.00,186.40 408.00,213.60"/>
        <lane id=":B0_11_1" index="1" speed="13.89" length="27.20" shape="404.80,186.40 404.80,213.60"/>
        <lane id=":B0_11_2" index="2" speed="13.89" length="27.20" shape="401.60,186.40 401.60,213.60"/>
    </edge>
    <edge id=":B0_14" function="internal">
        <lane id=":B0_14_0" index="0" speed="10.36" length="5.01" shape="401.60,186.40 400.89,191.36"/>
    </edge>
    <edge id=":B0_22" function="internal">
        <lane id=":B0_22_0" index="0" speed="10.36" length="19.50" shape="400.89,191.36 400.65,193.05 397.80,197.80 393.05,200.65 386.40,201.60"/>
    </edge>
    <edge id=":B0_15" function="internal">
        <lane id=":B0_15_0" index="0" speed="6.51" length="9.03" shape="386.40,192.00 388.85,191.65 390.60,190.60 391.65,188.85 392.00,186.40"/>
    </edge>
    <edge id=":B0_16" function="internal">
        <lane id=":B0_16_0" index="0" speed="13.89" length="27.20" shape="386.40,192.00 413.60,192.00"/>
        <lane id=":B0_16_1" index="1" speed="13.89" length="27.20" shape="386.40,195.20 413.60,195.20"/>
        <lane id=":B0_16_2" index="2" speed="13.89" length="27.20" shape="386.40,198.40 413.60,198.40"/>
    </edge>
    <edge id=":B0_19" function="internal">
        <lane id=":B0_19_0" index="0" speed="10.36" length="5.01" shape="386.40,198.40 391.36,199.11"/>
    </edge>
    <edge id=":B0_23" function="internal">
        <lane id=":B0_23_0" index="0" speed="10.36" length="19.50" shape="391.36,199.11 393.05,199.35 397.80,202.20 400.65,206.95 401.60,213.60"/>
    </edge>

    <edge id="A0B0" from="A0" to="B0" priority="-1">
        <lane id="A0B0_0" index="0" speed="13.89" length="172.80" shape="213.60,192.00 386.40,192.00"/>
        <lane id="A0B0_1" index="1" speed="13.89" length="172.80" shape="213.60,195.20 386.40,195.20"/>
        <lane id="A0B0_2" index="2" speed="13.89" length="172.80" shape="213.60,198.40 386.40,198.40"/>
    </edge>
    <edge id="A0bottom0" from="A0" to="bottom0" priority="-1">
        <lane id="A0bottom0_0" index="0" speed="13.89" length="186.40" shape="192.00,186.40 192.00,0.00"/>
        <lane id="A0bottom0_1" index="1" speed="13.89" length="186.40" shape="195.20,186.40 195.20,0.00"/>
        <lane id="A0bottom0_2" index="2" speed="13.89" length="186.40" shape="198.40,186.40 198.40,0.00"/>
    </edge>
    <edge id="A0left0" from="A0" to="left0" priority="-1">
        <lane id="A0left0_0" index="0" speed="13.89" length="186.40" shape="186.40,208.00 0.00,208.00"/>
        <lane id="A0left0_1" index="1" speed="13.89" length="186.40" shape="186.40,204.80 0.00,204.80"/>
        <lane id="A0left0_2" index="2" speed="13.89" length="186.40" shape="186.40,201.60 0.00,201.60"/>
    </edge>
    <edge id="A0top0" from="A0" to="top0" priority="-1">
        <lane id="A0top0_0" index="0" speed="13.89" length="186.40" shape="208.00,213.60 208.00,400.00"/>
        <lane id="A0top0_1" index="1" speed="13.89" length="186.40" shape="204.80,213.60 204.80,400.00"/>
        <lane id="A0top0_2" index="2" speed="13.89" length="186.40" shape="201.60,213.60 201.60,400.00"/>
    </edge>
    <edge id="B0A0" from="B0" to="A0" priority="-1">
        <lane id="B0A0_0" index="0" speed="13.89" length="172.80" shape="386.40,208.00 213.60,208.00"/>
        <lane id="B0A0_1" index="1" speed="13.89" length="172.80" shape="386.40,204.80 213.60,204.80"/>
        <lane id="B0A0_2" index="2" speed="13.89" length="172.80" shape="386.40,201.60 213.60,201.60"/>
    </edge>
    <edge id="B0bottom1" from="B0" to="bottom1" priority="-1">
        <lane id="B0bottom1_0" index="0" speed="13.89" length="186.40" shape="392.00,186.40 392.00,0.00"/>
        <lane id="B0bottom1_1" index="1" speed="13.89" length="186.40" shape="395.20,186.40 395.20,0.00"/>
        <lane id="B0bottom1_2" index="2" speed="13.89" length="186.40" shape="398.40,186.40 398.40,0.00"/>
    </edge>
    <edge id="B0right0" from="B0" to="right0" priority="-1">
        <lane id="B0right0_0" index="0" speed="13.89" length="186.40" shape="413.60,192.00 600.00,192.00"/>
        <lane id="B0right0_1" index="1" speed="13.89" length="186.40" shape="413.60,195.20 600.00,195.20"/>
        <lane id="B0right0_2" index="2" speed="13.89" length="186.40" shape="413.60,198.40 600.00,198.40"/>
    </edge>
    <edge id="B0top1" from="B0" to="top1" priority="-1">
        <lane id="B0top1_0" index="0" speed="13.89" length="186.40" shape="408.00,213.60 408.00,400.00"/>
        <lane id="B0top1_1" index="1" speed="13.89" length="186.40" shape="404.80,213.60 404.80,400.00"/>
        <lane id="B0top1_2" index="2" speed="13.89" length="186.40" shape="401.60,213.60 401.60,400.00"/>
    </edge>
    <edge id="bottom0A0" from="bottom0" to="A0" priority="-1">
        <lane id="bottom0A0_0" index="0" speed="13.89" length="186.40" shape="208.00,0.00 208.00,186.40"/>
        <lane id="bottom0A0_1" index="1" speed="13.89" length="186.40" shape="204.80,0.00 204.80,186.40"/>
        <lane id="bottom0A0_2" index="2" speed="13.89" length="186.40" shape="201.60,0.00 201.60,186.40"/>
    </edge>
    <edge id="bottom1B0" from="bottom1" to="B0" priority="-1">
        <lane id="bottom1B0_0" index="0" speed="13.89" length="186.40" shape="408.00,0.00 408.00,186.40"/>
        <lane id="bottom1B0_1" index="1" speed="13.89" length="186.40" shape="404.80,0.00 404.80,186.40"/>
        <lane id="bottom1B0_2" index="2" speed="13.89" length="186.40" shape="401.60,0.00 401.60,186.40"/>
    </edge>
    <edge id="left0A0" from="left0" to="A0" priority="-1">
        <lane id="left0A0_0" index="0" speed="13.89" length="186.40" shape="0.00,192.00 186.40,192.00"/>
        <lane id="left0A0_1" index="1" speed="13.89" length="186.40" shape="0.00,195.20 186.40,195.20"/>
        <lane id="left0A0_2" index="2" speed="13.89" length="186.40" shape="0.00,198.40 186.40,198.40"/>
    </edge>
    <edge id="right0B0" from="right0" to="B0" priority="-1">
        <lane id="right0B0_0" index="0" speed="13.89" length="186.40" shape="600.00,208.00 413.60,208.00"/>
        <lane id="right0B0_1" index="1" speed="13.89" length="186.40" shape="600.00,204.80 413.60,204.80"/>
        <lane id="right0B0_2" index="2" speed="13.89" length="186.40" shape="600.00,201.60 413.60,201.60"/>
    </edge>
    <edge id="top0A0" from="top0" to="A0" priority="-1">
        <lane id="top0A0_0" index="0" speed="13.89" length="186.40" shape="192.00,400.00 192.00,213.60"/>
        <lane id="top0A0_1" index="1" speed="13.89" length="186.40" shape="195.20,400.00 195.20,213.60"/>
        <lane id="top0A0_2" index="2" speed="13.89" length="186.40" shape="198.40,400.00 198.40,213.60"/>
    </edge>
    <edge id="top1B0" from="top1" to="B0" priority="-1">
        <lane id="top1B0_0" index="0" speed="13.89" length="186.40" shape="392.00,400.00 392.00,213.60"/>
        <lane id="top1B0_1" index="1" speed="13.89" length="186.40" shape="395.20,400.00 395.20,213.60"/>
        <lane id="top1B0_2" index="2" speed="13.89" length="186.40" shape="398.40,400.00 398.40,213.60"/>
    </edge>

    <tlLogic id="A0" type="static" programID="0" offset="0">
        <phase duration="42" state="GGGGgrrrrrGGGGgrrrrr"/>
        <phase duration="3"  state="yyyyyrrrrryyyyyrrrrr"/>
        <phase duration="42" state="rrrrrGGGGgrrrrrGGGGg"/>
        <phase duration="3"  state="rrrrryyyyyrrrrryyyyy"/>
    </tlLogic>
    <tlLogic id="B0" type="static" programID="0" offset="0">
        <phase duration="42" state="GGGGgrrrrrGGGGgrrrrr"/>
        <phase duration="3"  state="yyyyyrrrrryyyyyrrrrr"/>
        <phase duration="42" state="rrrrrGGGGgrrrrrGGGGg"/>
        <phase duration="3"  state="rrrrryyyyyrrrrryyyyy"/>
    </tlLogic>

    <junction id="A0" type="traffic_light" x="200.00" y="200.00" incLanes="top0A0_0 top0A0_1 top0A0_2 B0A0_0 B0A0_1 B0A0_2 bottom0A0_0 bottom0A0_1 bottom0A0_2 left0A0_0 left0A0_1 left0A0_2" intLanes=":A0_0_0 :A0_1_0 :A0_1_1 :A0_1_2 :A0_20_0 :A0_5_0 :A0_6_0 :A0_6_1 :A0_6_2 :A0_21_0 :A0_10_0 :A0_11_0 :A0_11_1 :A0_11_2 :A0_22_0 :A0_15_0 :A0_16_0 :A0_16_1 :A0_16_2 :A0_23_0" shape="190.40,213.60 209.60,213.60 210.04,211.38 210.60,210.60 211.38,210.04 212.38,209.71 213.60,209.60 213.60,190.40 211.38,189.96 210.60,189.40 210.04,188.62 209.71,187.62 209.60,186.40 190.40,186.40 189.96,188.62 189.40,189.40 188.62,189.96 187.62,190.29 186.40,190.40 186.40,209.60 188.62,210.04 189.40,210.60 189.96,211.38 190.29,212.38">
        <request index="0"  response="00000000000000000000" foes="00000000000111000000" cont="0"/>
        <request index="1"  response="10000000000000000000" foes="11111100001111000000" cont="0"/>
        <request index="2"  response="10000000000000000000" foes="11111100001111000000" cont="0"/>
        <request index="3"  response="10000000001000000000" foes="11111100001111000000" cont="0"/>
        <request index="4"  response="10000011101000000000" foes="11110011101111000000" cont="1"/>
        <request index="5"  response="00000011100000000000" foes="00000011100000000000" cont="0"/>
        <request index="6"  response="00000111100000011111" foes="10000111100000011111" cont="0"/>
        <request index="7"  response="00000111100000011111" foes="10000111100000011111" cont="0"/>
        <request index="8"  response="00000111100000011111" foes="10000111100000011111" cont="0"/>
        <request index="9"  response="01110111100000011110" foes="01110111100000011110" cont="1"/>
        <request index="10" response="00000000000000000000" foes="01110000000000000000" cont="0"/>
        <request index="11" response="00000000001000000000" foes="11110000001111110000" cont="0"/>
        <request index="12" response="00000000001000000000" foes="11110000001111110000" cont="0"/>
        <request index="13" response="10000000001000000000" foes="11110000001111110000" cont="0"/>
        <request index="14" response="10000000001000001110" foes="11110000001111001110" cont="1"/>
        <request index="15" response="00000000000000001110" foes="00000000000000001110" cont="0"/>
        <request index="16" response="00000111110000011110" foes="00000111111000011110" cont="0"/>
        <request index="17" response="00000111110000011110" foes="00000111111000011110" cont="0"/>
        <request index="18" response="00000111110000011110" foes="00000111111000011110" cont="0"/>
        <request index="19" response="00000111100111011110" foes="00000111100111011110" cont="1"/>
    </junction>
    <junction id="B0" type="traffic_light" x="400.00" y="200.00" incLanes="top1B0_0 top1B0_1 top1B0_2 right0B0_0 right0B0_1 right0B0_2 bottom1B0_0 bottom1B0_1 bottom1B0_2 A0B0_0 A0B0_1 A0B0_2" intLanes=":B0_0_0 :B0_1_0 :B0_1_1 :B0_1_2 :B0_20_0 :B0_5_0 :B0_6_0 :B0_6_1 :B0_6_2 :B0_21_0 :B0_10_0 :B0_11_0 :B0_11_1 :B0_11_2 :B0_22_0 :B0_15_0 :B0_16_0 :B0_16_1 :B0_16_2 :B0_23_0" shape="390.40,213.60 409.60,213.60 410.04,211.38 410.60,210.60 411.38,210.04 412.38,209.71 413.60,209.60 413.60,190.40 411.38,189.96 410.60,189.40 410.04,188.62 409.71,187.62 409.60,186.40 390.40,186.40 389.96,188.62 389.40,189.40 388.62,189.96 387.62,190.29 386.40,190.40 386.40,209.60 388.62,210.04 389.40,210.60 389.96,211.38 390.29,212.38">
        <request index="0"  response="00000000000000000000" foes="00000000000111000000" cont="0"/>
        <request index="1"  response="10000000000000000000" foes="11111100001111000000" cont="0"/>
        <request index="2"  response="10000000000000000000" foes="11111100001111000000" cont="0"/>
        <request index="3"  response="10000000001000000000" foes="11111100001111000000" cont="0"/>
        <request index="4"  response="10000011101000000000" foes="11110011101111000000" cont="1"/>
        <request index="5"  response="00000011100000000000" foes="00000011100000000000" cont="0"/>
        <request index="6"  response="00000111100000011111" foes="10000111100000011111" cont="0"/>
        <request index="7"  response="00000111100000011111" foes="10000111100000011111" cont="0"/>
        <request index="8"  response="00000111100000011111" foes="10000111100000011111" cont="0"/>
        <request index="9"  response="01110111100000011110" foes="01110111100000011110" cont="1"/>
        <request index="10" response="00000000000000000000" foes="01110000000000000000" cont="0"/>
        <request index="11" response="00000000001000000000" foes="11110000001111110000" cont="0"/>
        <request index="12" response="00000000001000000000" foes="11110000001111110000" cont="0"/>
        <request index="13" response="10000000001000000000" foes="11110000001111110000" cont="0"/>
        <request index="14" response="10000000001000001110" foes="11110000001111001110" cont="1"/>
        <request index="15" response="00000000000000001110" foes="00000000000000001110" cont="0"/>
        <request index="16" response="00000111110000011110" foes="00000111111000011110" cont="0"/>
        <request index="17" response="00000111110000011110" foes="00000111111000011110" cont="0"/>
        <request index="18" response="00000111110000011110" foes="00000111111000011110" cont="0"/>
        <request index="19" response="00000111100111011110" foes="00000111100111011110" cont="1"/>
    </junction>
    <junction id="bottom0" type="dead_end" x="200.00" y="0.00" incLanes="A0bottom0_0 A0bottom0_1 A0bottom0_2" intLanes="" shape="200.00,0.00 190.40,0.00 200.00,0.00" fringe="outer"/>
    <junction id="bottom1" type="dead_end" x="400.00" y="0.00" incLanes="B0bottom1_0 B0bottom1_1 B0bottom1_2" intLanes="" shape="400.00,0.00 390.40,0.00 400.00,0.00" fringe="outer"/>
    <junction id="left0" type="dead_end" x="0.00" y="200.00" incLanes="A0left0_0 A0left0_1 A0left0_2" intLanes="" shape="0.00,200.00 0.00,209.60 0.00,200.00" fringe="outer"/>
    <junction id="right0" type="dead_end" x="600.00" y="200.00" incLanes="B0right0_0 B0right0_1 B0right0_2" intLanes="" shape="600.00,200.00 600.00,190.40 600.00,200.00" fringe="outer"/>
    <junction id="top0" type="dead_end" x="200.00" y="400.00" incLanes="A0top0_0 A0top0_1 A0top0_2" intLanes="" shape="200.00,400.00 209.60,400.00 200.00,400.00" fringe="outer"/>
    <junction id="top1" type="dead_end" x="400.00" y="400.00" incLanes="B0top1_0 B0top1_1 B0top1_2" intLanes="" shape="400.00,400.00 409.60,400.00 400.00,400.00" fringe="outer"/>

    <junction id=":A0_20_0" type="internal" x="199.11" y="208.64" incLanes=":A0_4_0 bottom0A0_0 bottom0A0_1 bottom0A0_2" intLanes=":A0_6_0 :A0_6_1 :A0_6_2 :A0_9_0 :A0_10_0 :A0_11_0 :A0_11_1 :A0_11_2 :A0_16_0 :A0_16_1 :A0_16_2 :A0_19_0"/>
    <junction id=":A0_21_0" type="internal" x="208.64" y="200.89" incLanes=":A0_9_0 left0A0_0 left0A0_1 left0A0_2" intLanes=":A0_1_0 :A0_1_1 :A0_1_2 :A0_4_0 :A0_11_0 :A0_11_1 :A0_11_2 :A0_14_0 :A0_15_0 :A0_16_0 :A0_16_1 :A0_16_2"/>
    <junction id=":A0_22_0" type="internal" x="200.89" y="191.36" incLanes=":A0_14_0 top0A0_0 top0A0_1 top0A0_2" intLanes=":A0_0_0 :A0_1_0 :A0_1_1 :A0_1_2 :A0_6_0 :A0_6_1 :A0_6_2 :A0_9_0 :A0_16_0 :A0_16_1 :A0_16_2 :A0_19_0"/>
    <junction id=":A0_23_0" type="internal" x="191.36" y="199.11" incLanes=":A0_19_0 B0A0_0 B0A0_1 B0A0_2" intLanes=":A0_1_0 :A0_1_1 :A0_1_2 :A0_4_0 :A0_5_0 :A0_6_0 :A0_6_1 :A0_6_2 :A0_11_0 :A0_11_1 :A0_11_2 :A0_14_0"/>
    <junction id=":B0_20_0" type="internal" x="399.11" y="208.64" incLanes=":B0_4_0 bottom1B0_0 bottom1B0_1 bottom1B0_2" intLanes=":B0_6_0 :B0_6_1 :B0_6_2 :B0_9_0 :B0_10_0 :B0_11_0 :B0_11_1 :B0_11_2 :B0_16_0 :B0_16_1 :B0_16_2 :B0_19_0"/>
    <junction id=":B0_21_0" type="internal" x="408.64" y="200.89" incLanes=":B0_9_0 A0B0_0 A0B0_1 A0B0_2" intLanes=":B0_1_0 :B0_1_1 :B0_1_2 :B0_4_0 :B0_11_0 :B0_11_1 :B0_11_2 :B0_14_0 :B0_15_0 :B0_16_0 :B0_16_1 :B0_16_2"/>
    <junction id=":B0_22_0" type="internal" x="400.89" y="191.36" incLanes=":B0_14_0 top1B0_0 top1B0_1 top1B0_2" intLanes=":B0_0_0 :B0_1_0 :B0_1_1 :B0_1_2 :B0_6_0 :B0_6_1 :B0_6_2 :B0_9_0 :B0_16_0 :B0_16_1 :B0_16_2 :B0_19_0"/>
    <junction id=":B0_23_0" type="internal" x="391.36" y="199.11" incLanes=":B0_19_0 right0B0_0 right0B0_1 right0B0_2" intLanes=":B0_1_0 :B0_1_1 :B0_1_2 :B0_4_0 :B0_5_0 :B0_6_0 :B0_6_1 :B0_6_2 :B0_11_0 :B0_11_1 :B0_11_2 :B0_14_0"/>

    <connection from="A0B0" to="B0bottom1" fromLane="0" toLane="0" via=":B0_15_0" tl="B0" linkIndex="15" dir="r" state="o"/>
    <connection from="A0B0" to="B0right0" fromLane="0" toLane="0" via=":B0_16_0" tl="B0" linkIndex="16" dir="s" state="o"/>
    <connection from="A0B0" to="B0right0" fromLane="1" toLane="1" via=":B0_16_1" tl="B0" linkIndex="17" dir="s" state="o"/>
    <connection from="A0B0" to="B0right0" fromLane="2" toLane="2" via=":B0_16_2" tl="B0" linkIndex="18" dir="s" state="o"/>
    <connection from="A0B0" to="B0top1" fromLane="2" toLane="2" via=":B0_19_0" tl="B0" linkIndex="19" dir="l" state="o"/>
    <connection from="B0A0" to="A0top0" fromLane="0" toLane="0" via=":A0_5_0" tl="A0" linkIndex="5" dir="r" state="o"/>
    <connection from="B0A0" to="A0left0" fromLane="0" toLane="0" via=":A0_6_0" tl="A0" linkIndex="6" dir="s" state="o"/>
    <connection from="B0A0" to="A0left0" fromLane="1" toLane="1" via=":A0_6_1" tl="A0" linkIndex="7" dir="s" state="o"/>
    <connection from="B0A0" to="A0left0" fromLane="2" toLane="2" via=":A0_6_2" tl="A0" linkIndex="8" dir="s" state="o"/>
    <connection from="B0A0" to="A0bottom0" fromLane="2" toLane="2" via=":A0_9_0" tl="A0" linkIndex="9" dir="l" state="o"/>
    <connection from="bottom0A0" to="A0B0" fromLane="0" toLane="0" via=":A0_10_0" tl="A0" linkIndex="10" dir="r" state="O"/>
    <connection from="bottom0A0" to="A0top0" fromLane="0" toLane="0" via=":A0_11_0" tl="A0" linkIndex="11" dir="s" state="O"/>
    <connection from="bottom0A0" to="A0top0" fromLane="1" toLane="1" via=":A0_11_1" tl="A0" linkIndex="12" dir="s" state="O"/>
    <connection from="bottom0A0" to="A0top0" fromLane="2" toLane="2" via=":A0_11_2" tl="A0" linkIndex="13" dir="s" state="O"/>
    <connection from="bottom0A0" to="A0left0" fromLane="2" toLane="2" via=":A0_14_0" tl="A0" linkIndex="14" dir="l" state="o"/>
    <connection from="bottom1B0" to="B0right0" fromLane="0" toLane="0" via=":B0_10_0" tl="B0" linkIndex="10" dir="r" state="O"/>
    <connection from="bottom1B0" to="B0top1" fromLane="0" toLane="0" via=":B0_11_0" tl="B0" linkIndex="11" dir="s" state="O"/>
    <connection from="bottom1B0" to="B0top1" fromLane="1" toLane="1" via=":B0_11_1" tl="B0" linkIndex="12" dir="s" state="O"/>
    <connection from="bottom1B0" to="B0top1" fromLane="2" toLane="2" via=":B0_11_2" tl="B0" linkIndex="13" dir="s" state="O"/>
    <connection from="bottom1B0" to="B0A0" fromLane="2" toLane="2" via=":B0_14_0" tl="B0" linkIndex="14" dir="l" state="o"/>
    <connection from="left0A0" to="A0bottom0" fromLane="0" toLane="0" via=":A0_15_0" tl="A0" linkIndex="15" dir="r" state="o"/>
    <connection from="left0A0" to="A0B0" fromLane="0" toLane="0" via=":A0_16_0" tl="A0" linkIndex="16" dir="s" state="o"/>
    <connection from="left0A0" to="A0B0" fromLane="1" toLane="1" via=":A0_16_1" tl="A0" linkIndex="17" dir="s" state="o"/>
    <connection from="left0A0" to="A0B0" fromLane="2" toLane="2" via=":A0_16_2" tl="A0" linkIndex="18" dir="s" state="o"/>
    <connection from="left0A0" to="A0top0" fromLane="2" toLane="2" via=":A0_19_0" tl="A0" linkIndex="19" dir="l" state="o"/>
    <connection from="right0B0" to="B0top1" fromLane="0" toLane="0" via=":B0_5_0" tl="B0" linkIndex="5" dir="r" state="o"/>
    <connection from="right0B0" to="B0A0" fromLane="0" toLane="0" via=":B0_6_0" tl="B0" linkIndex="6" dir="s" state="o"/>
    <connection from="right0B0" to="B0A0" fromLane="1" toLane="1" via=":B0_6_1" tl="B0" linkIndex="7" dir="s" state="o"/>
    <connection from="right0B0" to="B0A0" fromLane="2" toLane="2" via=":B0_6_2" tl="B0" linkIndex="8" dir="s" state="o"/>
    <connection from="right0B0" to="B0bottom1" fromLane="2" toLane="2" via=":B0_9_0" tl="B0" linkIndex="9" dir="l" state="o"/>
    <connection from="top0A0" to="A0left0" fromLane="0" toLane="0" via=":A0_0_0" tl="A0" linkIndex="0" dir="r" state="O"/>
    <connection from="top0A0" to="A0bottom0" fromLane="0" toLane="0" via=":A0_1_0" tl="A0" linkIndex="1" dir="s" state="O"/>
    <connection from="top0A0" to="A0bottom0" fromLane="1" toLane="1" via=":A0_1_1" tl="A0" linkIndex="2" dir="s" state="O"/>
    <connection from="top0A0" to="A0bottom0" fromLane="2" toLane="2" via=":A0_1_2" tl="A0" linkIndex="3" dir="s" state="O"/>
    <connection from="top0A0" to="A0B0" fromLane="2" toLane="2" via=":A0_4_0" tl="A0" linkIndex="4" dir="l" state="o"/>
    <connection from="top1B0" to="B0A0" fromLane="0" toLane="0" via=":B0_0_0" tl="B0" linkIndex="0" dir="r" state="O"/>
    <connection from="top1B0" to="B0bottom1" fromLane="0" toLane="0" via=":B0_1_0" tl="B0" linkIndex="1" dir="s" state="O"/>
    <connection from="top1B0" to="B0bottom1" fromLane="1" toLane="1" via=":B0_1_1" tl="B0" linkIndex="2" dir="s" state="O"/>
    <connection from="top1B0" to="B0bottom1" fromLane="2" toLane="2" via=":B0_1_2" tl="B0" linkIndex="3" dir="s" state="O"/>
    <connection from="top1B0" to="B0right0" fromLane="2" toLane="2" via=":B0_4_0" tl="B0" linkIndex="4" dir="l" state="o"/>

    <connection from=":A0_0" to="A0left0" fromLane="0" toLane="0" dir="r" state="M"/>
    <connection from=":A0_1" to="A0bottom0" fromLane="0" toLane="0" dir="s" state="M"/>
    <connection from=":A0_1" to="A0bottom0" fromLane="1" toLane="1" dir="s" state="M"/>
    <connection from=":A0_1" to="A0bottom0" fromLane="2" toLane="2" dir="s" state="M"/>
    <connection from=":A0_4" to="A0B0" fromLane="0" toLane="2" via=":A0_20_0" dir="l" state="m"/>
    <connection from=":A0_20" to="A0B0" fromLane="0" toLane="2" dir="l" state="M"/>
    <connection from=":A0_5" to="A0top0" fromLane="0" toLane="0" dir="r" state="M"/>
    <connection from=":A0_6" to="A0left0" fromLane="0" toLane="0" dir="s" state="M"/>
    <connection from=":A0_6" to="A0left0" fromLane="1" toLane="1" dir="s" state="M"/>
    <connection from=":A0_6" to="A0left0" fromLane="2" toLane="2" dir="s" state="M"/>
    <connection from=":A0_9" to="A0bottom0" fromLane="0" toLane="2" via=":A0_21_0" dir="l" state="m"/>
    <connection from=":A0_21" to="A0bottom0" fromLane="0" toLane="2" dir="l" state="M"/>
    <connection from=":A0_10" to="A0B0" fromLane="0" toLane="0" dir="r" state="M"/>
    <connection from=":A0_11" to="A0top0" fromLane="0" toLane="0" dir="s" state="M"/>
    <connection from=":A0_11" to="A0top0" fromLane="1" toLane="1" dir="s" state="M"/>
    <connection from=":A0_11" to="A0top0" fromLane="2" toLane="2" dir="s" state="M"/>
    <connection from=":A0_14" to="A0left0" fromLane="0" toLane="2" via=":A0_22_0" dir="l" state="m"/>
    <connection from=":A0_22" to="A0left0" fromLane="0" toLane="2" dir="l" state="M"/>
    <connection from=":A0_15" to="A0bottom0" fromLane="0" toLane="0" dir="r" state="M"/>
    <connection from=":A0_16" to="A0B0" fromLane="0" toLane="0" dir="s" state="M"/>
    <connection from=":A0_16" to="A0B0" fromLane="1" toLane="1" dir="s" state="M"/>
    <connection from=":A0_16" to="A0B0" fromLane="2" toLane="2" dir="s" state="M"/>